 &NAMTRC_RUN
 NN_DTTRC        =           1,
 LN_RSTTR        = T,
 NN_RSTTR        =           0,
 LN_TOP_EULER    = F,
 CN_TRCRST_INDIR = /work/n01/n01/annkat/SEAsia_ERSEM_CMEMS/FAKE_BGC/                                                                 
                                                                                                                                     
           ,
 CN_TRCRST_OUTDIR        = ./RESTARTS                                                                                                
                                                                                                                                     
                   ,
 CN_TRCRST_IN    = SEAsia_test_only_restart_trc.nc                                                 ,
 CN_TRCRST_OUT   = restart_trc                                                                     
 /
 &NAMTRC
 JP_BGC  =          52,
 LN_PISCES       = F,
 LN_MY_TRC       = F,
 LN_FABM = T,
 LN_AGE  = F,
 LN_CFC11        = F,
 LN_CFC12        = F,
 LN_SF6  = F,
 LN_C14  = F,
 SN_TRACER(1)%CLSNAME = light_ADY           ,
 SN_TRACER(1)%CLLNAME = light gelbstoff absorption                                                      ,
 SN_TRACER(1)%CLUNIT  =                     ,
 SN_TRACER(1)%LLINIT  = F,
 SN_TRACER(1)%LLSBC   = F,
 SN_TRACER(1)%LLCBC   = F,
 SN_TRACER(1)%LLOBC   = F,
 SN_TRACER(1)%LLSAVE  = F,
 SN_TRACER(2)%CLSNAME = N1_p                ,
 SN_TRACER(2)%CLLNAME = phosphate                                                                       ,
 SN_TRACER(2)%CLUNIT  =                     ,
 SN_TRACER(2)%LLINIT  = F,
 SN_TRACER(2)%LLSBC   = F,
 SN_TRACER(2)%LLCBC   = F,
 SN_TRACER(2)%LLOBC   = F,
 SN_TRACER(2)%LLSAVE  = F,
 SN_TRACER(3)%CLSNAME = N3_n                ,
 SN_TRACER(3)%CLLNAME = oxidised nitrogen                                                               ,
 SN_TRACER(3)%CLUNIT  =                     ,
 SN_TRACER(3)%LLINIT  = F,
 SN_TRACER(3)%LLSBC   = F,
 SN_TRACER(3)%LLCBC   = F,
 SN_TRACER(3)%LLOBC   = F,
 SN_TRACER(3)%LLSAVE  = F,
 SN_TRACER(4)%CLSNAME = N4_n                ,
 SN_TRACER(4)%CLLNAME = ammonium nitrogen                                                               ,
 SN_TRACER(4)%CLUNIT  =                     ,
 SN_TRACER(4)%LLINIT  = F,
 SN_TRACER(4)%LLSBC   = F,
 SN_TRACER(4)%LLCBC   = F,
 SN_TRACER(4)%LLOBC   = F,
 SN_TRACER(4)%LLSAVE  = F,
 SN_TRACER(5)%CLSNAME = N5_s                ,
 SN_TRACER(5)%CLLNAME = silicate                                                                        ,
 SN_TRACER(5)%CLUNIT  =                     ,
 SN_TRACER(5)%LLINIT  = F,
 SN_TRACER(5)%LLSBC   = F,
 SN_TRACER(5)%LLCBC   = F,
 SN_TRACER(5)%LLOBC   = F,
 SN_TRACER(5)%LLSAVE  = F,
 SN_TRACER(6)%CLSNAME = O2_o                ,
 SN_TRACER(6)%CLLNAME = oxygen                                                                          ,
 SN_TRACER(6)%CLUNIT  =                     ,
 SN_TRACER(6)%LLINIT  = F,
 SN_TRACER(6)%LLSBC   = F,
 SN_TRACER(6)%LLCBC   = F,
 SN_TRACER(6)%LLOBC   = F,
 SN_TRACER(6)%LLSAVE  = F,
 SN_TRACER(7)%CLSNAME = O3_c                ,
 SN_TRACER(7)%CLLNAME = dissolved inorganic carbon                                                      ,
 SN_TRACER(7)%CLUNIT  =                     ,
 SN_TRACER(7)%LLINIT  = F,
 SN_TRACER(7)%LLSBC   = F,
 SN_TRACER(7)%LLCBC   = F,
 SN_TRACER(7)%LLOBC   = F,
 SN_TRACER(7)%LLSAVE  = F,
 SN_TRACER(8)%CLSNAME = O3_bioalk           ,
 SN_TRACER(8)%CLLNAME = carbonate bioalkalinity                                                         ,
 SN_TRACER(8)%CLUNIT  =                     ,
 SN_TRACER(8)%LLINIT  = F,
 SN_TRACER(8)%LLSBC   = F,
 SN_TRACER(8)%LLCBC   = F,
 SN_TRACER(8)%LLOBC   = F,
 SN_TRACER(8)%LLSAVE  = F,
 SN_TRACER(9)%CLSNAME = B1_c                ,
 SN_TRACER(9)%CLLNAME = bacteria carbon                                                                 ,
 SN_TRACER(9)%CLUNIT  =                     ,
 SN_TRACER(9)%LLINIT  = F,
 SN_TRACER(9)%LLSBC   = F,
 SN_TRACER(9)%LLCBC   = F,
 SN_TRACER(9)%LLOBC   = F,
 SN_TRACER(9)%LLSAVE  = F,
 SN_TRACER(10)%CLSNAME = B1_n                ,
 SN_TRACER(10)%CLLNAME = bacteria nitrogen                                                               ,
 SN_TRACER(10)%CLUNIT  =                     ,
 SN_TRACER(10)%LLINIT  = F,
 SN_TRACER(10)%LLSBC   = F,
 SN_TRACER(10)%LLCBC   = F,
 SN_TRACER(10)%LLOBC   = F,
 SN_TRACER(10)%LLSAVE  = F,
 SN_TRACER(11)%CLSNAME = B1_p                ,
 SN_TRACER(11)%CLLNAME = bacteria phosphorus                                                             ,
 SN_TRACER(11)%CLUNIT  =                     ,
 SN_TRACER(11)%LLINIT  = F,
 SN_TRACER(11)%LLSBC   = F,
 SN_TRACER(11)%LLCBC   = F,
 SN_TRACER(11)%LLOBC   = F,
 SN_TRACER(11)%LLSAVE  = F,
 SN_TRACER(12)%CLSNAME = P1_c                ,
 SN_TRACER(12)%CLLNAME = diatom carbon                                                                   ,
 SN_TRACER(12)%CLUNIT  =                     ,
 SN_TRACER(12)%LLINIT  = F,
 SN_TRACER(12)%LLSBC   = F,
 SN_TRACER(12)%LLCBC   = F,
 SN_TRACER(12)%LLOBC   = F,
 SN_TRACER(12)%LLSAVE  = F,
 SN_TRACER(13)%CLSNAME = P1_n                ,
 SN_TRACER(13)%CLLNAME = diatom nitrogen                                                                 ,
 SN_TRACER(13)%CLUNIT  =                     ,
 SN_TRACER(13)%LLINIT  = F,
 SN_TRACER(13)%LLSBC   = F,
 SN_TRACER(13)%LLCBC   = F,
 SN_TRACER(13)%LLOBC   = F,
 SN_TRACER(13)%LLSAVE  = F,
 SN_TRACER(14)%CLSNAME = P1_p                ,
 SN_TRACER(14)%CLLNAME = diatom phosphorus                                                               ,
 SN_TRACER(14)%CLUNIT  =                     ,
 SN_TRACER(14)%LLINIT  = F,
 SN_TRACER(14)%LLSBC   = F,
 SN_TRACER(14)%LLCBC   = F,
 SN_TRACER(14)%LLOBC   = F,
 SN_TRACER(14)%LLSAVE  = F,
 SN_TRACER(15)%CLSNAME = P1_Chl              ,
 SN_TRACER(15)%CLLNAME = diatom chlorophyll                                                              ,
 SN_TRACER(15)%CLUNIT  =                     ,
 SN_TRACER(15)%LLINIT  = F,
 SN_TRACER(15)%LLSBC   = F,
 SN_TRACER(15)%LLCBC   = F,
 SN_TRACER(15)%LLOBC   = F,
 SN_TRACER(15)%LLSAVE  = F,
 SN_TRACER(16)%CLSNAME = P1_s                ,
 SN_TRACER(16)%CLLNAME = diatom silicate                                                                 ,
 SN_TRACER(16)%CLUNIT  =                     ,
 SN_TRACER(16)%LLINIT  = F,
 SN_TRACER(16)%LLSBC   = F,
 SN_TRACER(16)%LLCBC   = F,
 SN_TRACER(16)%LLOBC   = F,
 SN_TRACER(16)%LLSAVE  = F,
 SN_TRACER(17)%CLSNAME = L2_c                ,
 SN_TRACER(17)%CLLNAME = calcite                                                                         ,
 SN_TRACER(17)%CLUNIT  =                     ,
 SN_TRACER(17)%LLINIT  = F,
 SN_TRACER(17)%LLSBC   = F,
 SN_TRACER(17)%LLCBC   = F,
 SN_TRACER(17)%LLOBC   = F,
 SN_TRACER(17)%LLSAVE  = F,
 SN_TRACER(18)%CLSNAME = P2_c                ,
 SN_TRACER(18)%CLLNAME = nanophytoplankton carbon                                                        ,
 SN_TRACER(18)%CLUNIT  =                     ,
 SN_TRACER(18)%LLINIT  = F,
 SN_TRACER(18)%LLSBC   = F,
 SN_TRACER(18)%LLCBC   = F,
 SN_TRACER(18)%LLOBC   = F,
 SN_TRACER(18)%LLSAVE  = F,
 SN_TRACER(19)%CLSNAME = P2_n                ,
 SN_TRACER(19)%CLLNAME = nanophytoplankton nitrogen                                                      ,
 SN_TRACER(19)%CLUNIT  =                     ,
 SN_TRACER(19)%LLINIT  = F,
 SN_TRACER(19)%LLSBC   = F,
 SN_TRACER(19)%LLCBC   = F,
 SN_TRACER(19)%LLOBC   = F,
 SN_TRACER(19)%LLSAVE  = F,
 SN_TRACER(20)%CLSNAME = P2_p                ,
 SN_TRACER(20)%CLLNAME = nanophytoplankton phosphorus                                                    ,
 SN_TRACER(20)%CLUNIT  =                     ,
 SN_TRACER(20)%LLINIT  = F,
 SN_TRACER(20)%LLSBC   = F,
 SN_TRACER(20)%LLCBC   = F,
 SN_TRACER(20)%LLOBC   = F,
 SN_TRACER(20)%LLSAVE  = F,
 SN_TRACER(21)%CLSNAME = P2_Chl              ,
 SN_TRACER(21)%CLLNAME = nanophytoplankton chlorophyll                                                   ,
 SN_TRACER(21)%CLUNIT  =                     ,
 SN_TRACER(21)%LLINIT  = F,
 SN_TRACER(21)%LLSBC   = F,
 SN_TRACER(21)%LLCBC   = F,
 SN_TRACER(21)%LLOBC   = F,
 SN_TRACER(21)%LLSAVE  = F,
 SN_TRACER(22)%CLSNAME = P3_c                ,
 SN_TRACER(22)%CLLNAME = picophytoplankton carbon                                                        ,
 SN_TRACER(22)%CLUNIT  =                     ,
 SN_TRACER(22)%LLINIT  = F,
 SN_TRACER(22)%LLSBC   = F,
 SN_TRACER(22)%LLCBC   = F,
 SN_TRACER(22)%LLOBC   = F,
 SN_TRACER(22)%LLSAVE  = F,
 SN_TRACER(23)%CLSNAME = P3_n                ,
 SN_TRACER(23)%CLLNAME = picophytoplankton nitrogen                                                      ,
 SN_TRACER(23)%CLUNIT  =                     ,
 SN_TRACER(23)%LLINIT  = F,
 SN_TRACER(23)%LLSBC   = F,
 SN_TRACER(23)%LLCBC   = F,
 SN_TRACER(23)%LLOBC   = F,
 SN_TRACER(23)%LLSAVE  = F,
 SN_TRACER(24)%CLSNAME = P3_p                ,
 SN_TRACER(24)%CLLNAME = picophytoplankton phosphorus                                                    ,
 SN_TRACER(24)%CLUNIT  =                     ,
 SN_TRACER(24)%LLINIT  = F,
 SN_TRACER(24)%LLSBC   = F,
 SN_TRACER(24)%LLCBC   = F,
 SN_TRACER(24)%LLOBC   = F,
 SN_TRACER(24)%LLSAVE  = F,
 SN_TRACER(25)%CLSNAME = P3_Chl              ,
 SN_TRACER(25)%CLLNAME = picophytoplankton chlorophyll                                                   ,
 SN_TRACER(25)%CLUNIT  =                     ,
 SN_TRACER(25)%LLINIT  = F,
 SN_TRACER(25)%LLSBC   = F,
 SN_TRACER(25)%LLCBC   = F,
 SN_TRACER(25)%LLOBC   = F,
 SN_TRACER(25)%LLSAVE  = F,
 SN_TRACER(26)%CLSNAME = P4_c                ,
 SN_TRACER(26)%CLLNAME = picrophytoplankton carbon                                                       ,
 SN_TRACER(26)%CLUNIT  =                     ,
 SN_TRACER(26)%LLINIT  = F,
 SN_TRACER(26)%LLSBC   = F,
 SN_TRACER(26)%LLCBC   = F,
 SN_TRACER(26)%LLOBC   = F,
 SN_TRACER(26)%LLSAVE  = F,
 SN_TRACER(27)%CLSNAME = P4_n                ,
 SN_TRACER(27)%CLLNAME = picrophytoplankton nitrogen                                                     ,
 SN_TRACER(27)%CLUNIT  =                     ,
 SN_TRACER(27)%LLINIT  = F,
 SN_TRACER(27)%LLSBC   = F,
 SN_TRACER(27)%LLCBC   = F,
 SN_TRACER(27)%LLOBC   = F,
 SN_TRACER(27)%LLSAVE  = F,
 SN_TRACER(28)%CLSNAME = P4_p                ,
 SN_TRACER(28)%CLLNAME = picrophytoplankton phosphorus                                                   ,
 SN_TRACER(28)%CLUNIT  =                     ,
 SN_TRACER(28)%LLINIT  = F,
 SN_TRACER(28)%LLSBC   = F,
 SN_TRACER(28)%LLCBC   = F,
 SN_TRACER(28)%LLOBC   = F,
 SN_TRACER(28)%LLSAVE  = F,
 SN_TRACER(29)%CLSNAME = P4_Chl              ,
 SN_TRACER(29)%CLLNAME = picrophytoplankton chlorophyll                                                  ,
 SN_TRACER(29)%CLUNIT  =                     ,
 SN_TRACER(29)%LLINIT  = F,
 SN_TRACER(29)%LLSBC   = F,
 SN_TRACER(29)%LLCBC   = F,
 SN_TRACER(29)%LLOBC   = F,
 SN_TRACER(29)%LLSAVE  = F,
 SN_TRACER(30)%CLSNAME = Z4_c                ,
 SN_TRACER(30)%CLLNAME = mesozooplankton carbon                                                          ,
 SN_TRACER(30)%CLUNIT  =                     ,
 SN_TRACER(30)%LLINIT  = F,
 SN_TRACER(30)%LLSBC   = F,
 SN_TRACER(30)%LLCBC   = F,
 SN_TRACER(30)%LLOBC   = F,
 SN_TRACER(30)%LLSAVE  = F,
 SN_TRACER(31)%CLSNAME = Z5_c                ,
 SN_TRACER(31)%CLLNAME = microzooplankton carbon                                                         ,
 SN_TRACER(31)%CLUNIT  =                     ,
 SN_TRACER(31)%LLINIT  = F,
 SN_TRACER(31)%LLSBC   = F,
 SN_TRACER(31)%LLCBC   = F,
 SN_TRACER(31)%LLOBC   = F,
 SN_TRACER(31)%LLSAVE  = F,
 SN_TRACER(32)%CLSNAME = Z5_n                ,
 SN_TRACER(32)%CLLNAME = microzooplankton nitrogen                                                       ,
 SN_TRACER(32)%CLUNIT  =                     ,
 SN_TRACER(32)%LLINIT  = F,
 SN_TRACER(32)%LLSBC   = F,
 SN_TRACER(32)%LLCBC   = F,
 SN_TRACER(32)%LLOBC   = F,
 SN_TRACER(32)%LLSAVE  = F,
 SN_TRACER(33)%CLSNAME = Z5_p                ,
 SN_TRACER(33)%CLLNAME = microzooplankton phosphorus                                                     ,
 SN_TRACER(33)%CLUNIT  =                     ,
 SN_TRACER(33)%LLINIT  = F,
 SN_TRACER(33)%LLSBC   = F,
 SN_TRACER(33)%LLCBC   = F,
 SN_TRACER(33)%LLOBC   = F,
 SN_TRACER(33)%LLSAVE  = F,
 SN_TRACER(34)%CLSNAME = Z6_c                ,
 SN_TRACER(34)%CLLNAME = nanoflagellates carbon                                                          ,
 SN_TRACER(34)%CLUNIT  =                     ,
 SN_TRACER(34)%LLINIT  = F,
 SN_TRACER(34)%LLSBC   = F,
 SN_TRACER(34)%LLCBC   = F,
 SN_TRACER(34)%LLOBC   = F,
 SN_TRACER(34)%LLSAVE  = F,
 SN_TRACER(35)%CLSNAME = Z6_n                ,
 SN_TRACER(35)%CLLNAME = nanoflagellates nitrogen                                                        ,
 SN_TRACER(35)%CLUNIT  =                     ,
 SN_TRACER(35)%LLINIT  = F,
 SN_TRACER(35)%LLSBC   = F,
 SN_TRACER(35)%LLCBC   = F,
 SN_TRACER(35)%LLOBC   = F,
 SN_TRACER(35)%LLSAVE  = F,
 SN_TRACER(36)%CLSNAME = Z6_p                ,
 SN_TRACER(36)%CLLNAME = nanoflagellates phosphorus                                                      ,
 SN_TRACER(36)%CLUNIT  =                     ,
 SN_TRACER(36)%LLINIT  = F,
 SN_TRACER(36)%LLSBC   = F,
 SN_TRACER(36)%LLCBC   = F,
 SN_TRACER(36)%LLOBC   = F,
 SN_TRACER(36)%LLSAVE  = F,
 SN_TRACER(37)%CLSNAME = R1_c                ,
 SN_TRACER(37)%CLLNAME = labile dissolved organic matter carbon                                          ,
 SN_TRACER(37)%CLUNIT  =                     ,
 SN_TRACER(37)%LLINIT  = F,
 SN_TRACER(37)%LLSBC   = F,
 SN_TRACER(37)%LLCBC   = F,
 SN_TRACER(37)%LLOBC   = F,
 SN_TRACER(37)%LLSAVE  = F,
 SN_TRACER(38)%CLSNAME = R1_n                ,
 SN_TRACER(38)%CLLNAME = labile dissolved organic matter nitrogen                                        ,
 SN_TRACER(38)%CLUNIT  =                     ,
 SN_TRACER(38)%LLINIT  = F,
 SN_TRACER(38)%LLSBC   = F,
 SN_TRACER(38)%LLCBC   = F,
 SN_TRACER(38)%LLOBC   = F,
 SN_TRACER(38)%LLSAVE  = F,
 SN_TRACER(39)%CLSNAME = R1_p                ,
 SN_TRACER(39)%CLLNAME = labile dissolved organic matter phosphorus                                      ,
 SN_TRACER(39)%CLUNIT  =                     ,
 SN_TRACER(39)%LLINIT  = F,
 SN_TRACER(39)%LLSBC   = F,
 SN_TRACER(39)%LLCBC   = F,
 SN_TRACER(39)%LLOBC   = F,
 SN_TRACER(39)%LLSAVE  = F,
 SN_TRACER(40)%CLSNAME = R2_c                ,
 SN_TRACER(40)%CLLNAME = semi-labile dissolved organic matter carbon                                     ,
 SN_TRACER(40)%CLUNIT  =                     ,
 SN_TRACER(40)%LLINIT  = F,
 SN_TRACER(40)%LLSBC   = F,
 SN_TRACER(40)%LLCBC   = F,
 SN_TRACER(40)%LLOBC   = F,
 SN_TRACER(40)%LLSAVE  = F,
 SN_TRACER(41)%CLSNAME = R3_c                ,
 SN_TRACER(41)%CLLNAME = semi-refractory dissolved organic matter carbon                                 ,
 SN_TRACER(41)%CLUNIT  =                     ,
 SN_TRACER(41)%LLINIT  = F,
 SN_TRACER(41)%LLSBC   = F,
 SN_TRACER(41)%LLCBC   = F,
 SN_TRACER(41)%LLOBC   = F,
 SN_TRACER(41)%LLSAVE  = F,
 SN_TRACER(42)%CLSNAME = R4_c                ,
 SN_TRACER(42)%CLLNAME = small particulate carbon                                                        ,
 SN_TRACER(42)%CLUNIT  =                     ,
 SN_TRACER(42)%LLINIT  = F,
 SN_TRACER(42)%LLSBC   = F,
 SN_TRACER(42)%LLCBC   = F,
 SN_TRACER(42)%LLOBC   = F,
 SN_TRACER(42)%LLSAVE  = F,
 SN_TRACER(43)%CLSNAME = R4_n                ,
 SN_TRACER(43)%CLLNAME = small particulate nitrogen                                                      ,
 SN_TRACER(43)%CLUNIT  =                     ,
 SN_TRACER(43)%LLINIT  = F,
 SN_TRACER(43)%LLSBC   = F,
 SN_TRACER(43)%LLCBC   = F,
 SN_TRACER(43)%LLOBC   = F,
 SN_TRACER(43)%LLSAVE  = F,
 SN_TRACER(44)%CLSNAME = R4_p                ,
 SN_TRACER(44)%CLLNAME = small particulate phosphorus                                                    ,
 SN_TRACER(44)%CLUNIT  =                     ,
 SN_TRACER(44)%LLINIT  = F,
 SN_TRACER(44)%LLSBC   = F,
 SN_TRACER(44)%LLCBC   = F,
 SN_TRACER(44)%LLOBC   = F,
 SN_TRACER(44)%LLSAVE  = F,
 SN_TRACER(45)%CLSNAME = R6_c                ,
 SN_TRACER(45)%CLLNAME = medium particulate carbon                                                       ,
 SN_TRACER(45)%CLUNIT  =                     ,
 SN_TRACER(45)%LLINIT  = F,
 SN_TRACER(45)%LLSBC   = F,
 SN_TRACER(45)%LLCBC   = F,
 SN_TRACER(45)%LLOBC   = F,
 SN_TRACER(45)%LLSAVE  = F,
 SN_TRACER(46)%CLSNAME = R6_n                ,
 SN_TRACER(46)%CLLNAME = medium particulate nitrogen                                                     ,
 SN_TRACER(46)%CLUNIT  =                     ,
 SN_TRACER(46)%LLINIT  = F,
 SN_TRACER(46)%LLSBC   = F,
 SN_TRACER(46)%LLCBC   = F,
 SN_TRACER(46)%LLOBC   = F,
 SN_TRACER(46)%LLSAVE  = F,
 SN_TRACER(47)%CLSNAME = R6_p                ,
 SN_TRACER(47)%CLLNAME = medium particulate phosphorus                                                   ,
 SN_TRACER(47)%CLUNIT  =                     ,
 SN_TRACER(47)%LLINIT  = F,
 SN_TRACER(47)%LLSBC   = F,
 SN_TRACER(47)%LLCBC   = F,
 SN_TRACER(47)%LLOBC   = F,
 SN_TRACER(47)%LLSAVE  = F,
 SN_TRACER(48)%CLSNAME = R6_s                ,
 SN_TRACER(48)%CLLNAME = medium particulate silicate                                                     ,
 SN_TRACER(48)%CLUNIT  =                     ,
 SN_TRACER(48)%LLINIT  = F,
 SN_TRACER(48)%LLSBC   = F,
 SN_TRACER(48)%LLCBC   = F,
 SN_TRACER(48)%LLOBC   = F,
 SN_TRACER(48)%LLSAVE  = F,
 SN_TRACER(49)%CLSNAME = R8_c                ,
 SN_TRACER(49)%CLLNAME = large particulate carbon                                                        ,
 SN_TRACER(49)%CLUNIT  =                     ,
 SN_TRACER(49)%LLINIT  = F,
 SN_TRACER(49)%LLSBC   = F,
 SN_TRACER(49)%LLCBC   = F,
 SN_TRACER(49)%LLOBC   = F,
 SN_TRACER(49)%LLSAVE  = F,
 SN_TRACER(50)%CLSNAME = R8_n                ,
 SN_TRACER(50)%CLLNAME = large particulate nitrogen                                                      ,
 SN_TRACER(50)%CLUNIT  =                     ,
 SN_TRACER(50)%LLINIT  = F,
 SN_TRACER(50)%LLSBC   = F,
 SN_TRACER(50)%LLCBC   = F,
 SN_TRACER(50)%LLOBC   = F,
 SN_TRACER(50)%LLSAVE  = F,
 SN_TRACER(51)%CLSNAME = R8_p                ,
 SN_TRACER(51)%CLLNAME = large particulate phosphorus                                                    ,
 SN_TRACER(51)%CLUNIT  =                     ,
 SN_TRACER(51)%LLINIT  = F,
 SN_TRACER(51)%LLSBC   = F,
 SN_TRACER(51)%LLCBC   = F,
 SN_TRACER(51)%LLOBC   = F,
 SN_TRACER(51)%LLSAVE  = F,
 SN_TRACER(52)%CLSNAME = R8_s                ,
 SN_TRACER(52)%CLLNAME = large particulate silicate                                                      ,
 SN_TRACER(52)%CLUNIT  =                     ,
 SN_TRACER(52)%LLINIT  = F,
 SN_TRACER(52)%LLSBC   = F,
 SN_TRACER(52)%LLCBC   = F,
 SN_TRACER(52)%LLOBC   = F,
 SN_TRACER(52)%LLSAVE  = F,
 SN_TRACER(53)%CLSNAME = NONAME              ,
 SN_TRACER(53)%CLLNAME = NOTITLE                                                                         ,
 SN_TRACER(53)%CLUNIT  = NOUNIT              ,
 SN_TRACER(53)%LLINIT  = F,
 SN_TRACER(53)%LLSBC   = F,
 SN_TRACER(53)%LLCBC   = F,
 SN_TRACER(53)%LLOBC   = F,
 SN_TRACER(53)%LLSAVE  = F,
 SN_TRACER(54)%CLSNAME = NONAME              ,
 SN_TRACER(54)%CLLNAME = NOTITLE                                                                         ,
 SN_TRACER(54)%CLUNIT  = NOUNIT              ,
 SN_TRACER(54)%LLINIT  = F,
 SN_TRACER(54)%LLSBC   = F,
 SN_TRACER(54)%LLCBC   = F,
 SN_TRACER(54)%LLOBC   = F,
 SN_TRACER(54)%LLSAVE  = F,
 SN_TRACER(55)%CLSNAME = NONAME              ,
 SN_TRACER(55)%CLLNAME = NOTITLE                                                                         ,
 SN_TRACER(55)%CLUNIT  = NOUNIT              ,
 SN_TRACER(55)%LLINIT  = F,
 SN_TRACER(55)%LLSBC   = F,
 SN_TRACER(55)%LLCBC   = F,
 SN_TRACER(55)%LLOBC   = F,
 SN_TRACER(55)%LLSAVE  = F,
 SN_TRACER(56)%CLSNAME = NONAME              ,
 SN_TRACER(56)%CLLNAME = NOTITLE                                                                         ,
 SN_TRACER(56)%CLUNIT  = NOUNIT              ,
 SN_TRACER(56)%LLINIT  = F,
 SN_TRACER(56)%LLSBC   = F,
 SN_TRACER(56)%LLCBC   = F,
 SN_TRACER(56)%LLOBC   = F,
 SN_TRACER(56)%LLSAVE  = F,
 SN_TRACER(57)%CLSNAME = NONAME              ,
 SN_TRACER(57)%CLLNAME = NOTITLE                                                                         ,
 SN_TRACER(57)%CLUNIT  = NOUNIT              ,
 SN_TRACER(57)%LLINIT  = F,
 SN_TRACER(57)%LLSBC   = F,
 SN_TRACER(57)%LLCBC   = F,
 SN_TRACER(57)%LLOBC   = F,
 SN_TRACER(57)%LLSAVE  = F,
 SN_TRACER(58)%CLSNAME = NONAME              ,
 SN_TRACER(58)%CLLNAME = NOTITLE                                                                         ,
 SN_TRACER(58)%CLUNIT  = NOUNIT              ,
 SN_TRACER(58)%LLINIT  = F,
 SN_TRACER(58)%LLSBC   = F,
 SN_TRACER(58)%LLCBC   = F,
 SN_TRACER(58)%LLOBC   = F,
 SN_TRACER(58)%LLSAVE  = F,
 SN_TRACER(59)%CLSNAME = NONAME              ,
 SN_TRACER(59)%CLLNAME = NOTITLE                                                                         ,
 SN_TRACER(59)%CLUNIT  = NOUNIT              ,
 SN_TRACER(59)%LLINIT  = F,
 SN_TRACER(59)%LLSBC   = F,
 SN_TRACER(59)%LLCBC   = F,
 SN_TRACER(59)%LLOBC   = F,
 SN_TRACER(59)%LLSAVE  = F,
 SN_TRACER(60)%CLSNAME = NONAME              ,
 SN_TRACER(60)%CLLNAME = NOTITLE                                                                         ,
 SN_TRACER(60)%CLUNIT  = NOUNIT              ,
 SN_TRACER(60)%LLINIT  = F,
 SN_TRACER(60)%LLSBC   = F,
 SN_TRACER(60)%LLCBC   = F,
 SN_TRACER(60)%LLOBC   = F,
 SN_TRACER(60)%LLSAVE  = F,
 SN_TRACER(61)%CLSNAME = NONAME              ,
 SN_TRACER(61)%CLLNAME = NOTITLE                                                                         ,
 SN_TRACER(61)%CLUNIT  = NOUNIT              ,
 SN_TRACER(61)%LLINIT  = F,
 SN_TRACER(61)%LLSBC   = F,
 SN_TRACER(61)%LLCBC   = F,
 SN_TRACER(61)%LLOBC   = F,
 SN_TRACER(61)%LLSAVE  = F,
 SN_TRACER(62)%CLSNAME = NONAME              ,
 SN_TRACER(62)%CLLNAME = NOTITLE                                                                         ,
 SN_TRACER(62)%CLUNIT  = NOUNIT              ,
 SN_TRACER(62)%LLINIT  = F,
 SN_TRACER(62)%LLSBC   = F,
 SN_TRACER(62)%LLCBC   = F,
 SN_TRACER(62)%LLOBC   = F,
 SN_TRACER(62)%LLSAVE  = F,
 SN_TRACER(63)%CLSNAME = NONAME              ,
 SN_TRACER(63)%CLLNAME = NOTITLE                                                                         ,
 SN_TRACER(63)%CLUNIT  = NOUNIT              ,
 SN_TRACER(63)%LLINIT  = F,
 SN_TRACER(63)%LLSBC   = F,
 SN_TRACER(63)%LLCBC   = F,
 SN_TRACER(63)%LLOBC   = F,
 SN_TRACER(63)%LLSAVE  = F,
 SN_TRACER(64)%CLSNAME = NONAME              ,
 SN_TRACER(64)%CLLNAME = NOTITLE                                                                         ,
 SN_TRACER(64)%CLUNIT  = NOUNIT              ,
 SN_TRACER(64)%LLINIT  = F,
 SN_TRACER(64)%LLSBC   = F,
 SN_TRACER(64)%LLCBC   = F,
 SN_TRACER(64)%LLOBC   = F,
 SN_TRACER(64)%LLSAVE  = F,
 SN_TRACER(65)%CLSNAME = NONAME              ,
 SN_TRACER(65)%CLLNAME = NOTITLE                                                                         ,
 SN_TRACER(65)%CLUNIT  = NOUNIT              ,
 SN_TRACER(65)%LLINIT  = F,
 SN_TRACER(65)%LLSBC   = F,
 SN_TRACER(65)%LLCBC   = F,
 SN_TRACER(65)%LLOBC   = F,
 SN_TRACER(65)%LLSAVE  = F,
 SN_TRACER(66)%CLSNAME = NONAME              ,
 SN_TRACER(66)%CLLNAME = NOTITLE                                                                         ,
 SN_TRACER(66)%CLUNIT  = NOUNIT              ,
 SN_TRACER(66)%LLINIT  = F,
 SN_TRACER(66)%LLSBC   = F,
 SN_TRACER(66)%LLCBC   = F,
 SN_TRACER(66)%LLOBC   = F,
 SN_TRACER(66)%LLSAVE  = F,
 SN_TRACER(67)%CLSNAME = NONAME              ,
 SN_TRACER(67)%CLLNAME = NOTITLE                                                                         ,
 SN_TRACER(67)%CLUNIT  = NOUNIT              ,
 SN_TRACER(67)%LLINIT  = F,
 SN_TRACER(67)%LLSBC   = F,
 SN_TRACER(67)%LLCBC   = F,
 SN_TRACER(67)%LLOBC   = F,
 SN_TRACER(67)%LLSAVE  = F,
 SN_TRACER(68)%CLSNAME = NONAME              ,
 SN_TRACER(68)%CLLNAME = NOTITLE                                                                         ,
 SN_TRACER(68)%CLUNIT  = NOUNIT              ,
 SN_TRACER(68)%LLINIT  = F,
 SN_TRACER(68)%LLSBC   = F,
 SN_TRACER(68)%LLCBC   = F,
 SN_TRACER(68)%LLOBC   = F,
 SN_TRACER(68)%LLSAVE  = F,
 SN_TRACER(69)%CLSNAME = NONAME              ,
 SN_TRACER(69)%CLLNAME = NOTITLE                                                                         ,
 SN_TRACER(69)%CLUNIT  = NOUNIT              ,
 SN_TRACER(69)%LLINIT  = F,
 SN_TRACER(69)%LLSBC   = F,
 SN_TRACER(69)%LLCBC   = F,
 SN_TRACER(69)%LLOBC   = F,
 SN_TRACER(69)%LLSAVE  = F,
 SN_TRACER(70)%CLSNAME = NONAME              ,
 SN_TRACER(70)%CLLNAME = NOTITLE                                                                         ,
 SN_TRACER(70)%CLUNIT  = NOUNIT              ,
 SN_TRACER(70)%LLINIT  = F,
 SN_TRACER(70)%LLSBC   = F,
 SN_TRACER(70)%LLCBC   = F,
 SN_TRACER(70)%LLOBC   = F,
 SN_TRACER(70)%LLSAVE  = F,
 SN_TRACER(71)%CLSNAME = NONAME              ,
 SN_TRACER(71)%CLLNAME = NOTITLE                                                                         ,
 SN_TRACER(71)%CLUNIT  = NOUNIT              ,
 SN_TRACER(71)%LLINIT  = F,
 SN_TRACER(71)%LLSBC   = F,
 SN_TRACER(71)%LLCBC   = F,
 SN_TRACER(71)%LLOBC   = F,
 SN_TRACER(71)%LLSAVE  = F,
 SN_TRACER(72)%CLSNAME = NONAME              ,
 SN_TRACER(72)%CLLNAME = NOTITLE                                                                         ,
 SN_TRACER(72)%CLUNIT  = NOUNIT              ,
 SN_TRACER(72)%LLINIT  = F,
 SN_TRACER(72)%LLSBC   = F,
 SN_TRACER(72)%LLCBC   = F,
 SN_TRACER(72)%LLOBC   = F,
 SN_TRACER(72)%LLSAVE  = F,
 SN_TRACER(73)%CLSNAME = NONAME              ,
 SN_TRACER(73)%CLLNAME = NOTITLE                                                                         ,
 SN_TRACER(73)%CLUNIT  = NOUNIT              ,
 SN_TRACER(73)%LLINIT  = F,
 SN_TRACER(73)%LLSBC   = F,
 SN_TRACER(73)%LLCBC   = F,
 SN_TRACER(73)%LLOBC   = F,
 SN_TRACER(73)%LLSAVE  = F,
 SN_TRACER(74)%CLSNAME = NONAME              ,
 SN_TRACER(74)%CLLNAME = NOTITLE                                                                         ,
 SN_TRACER(74)%CLUNIT  = NOUNIT              ,
 SN_TRACER(74)%LLINIT  = F,
 SN_TRACER(74)%LLSBC   = F,
 SN_TRACER(74)%LLCBC   = F,
 SN_TRACER(74)%LLOBC   = F,
 SN_TRACER(74)%LLSAVE  = F,
 SN_TRACER(75)%CLSNAME = NONAME              ,
 SN_TRACER(75)%CLLNAME = NOTITLE                                                                         ,
 SN_TRACER(75)%CLUNIT  = NOUNIT              ,
 SN_TRACER(75)%LLINIT  = F,
 SN_TRACER(75)%LLSBC   = F,
 SN_TRACER(75)%LLCBC   = F,
 SN_TRACER(75)%LLOBC   = F,
 SN_TRACER(75)%LLSAVE  = F,
 SN_TRACER(76)%CLSNAME = NONAME              ,
 SN_TRACER(76)%CLLNAME = NOTITLE                                                                         ,
 SN_TRACER(76)%CLUNIT  = NOUNIT              ,
 SN_TRACER(76)%LLINIT  = F,
 SN_TRACER(76)%LLSBC   = F,
 SN_TRACER(76)%LLCBC   = F,
 SN_TRACER(76)%LLOBC   = F,
 SN_TRACER(76)%LLSAVE  = F,
 SN_TRACER(77)%CLSNAME = NONAME              ,
 SN_TRACER(77)%CLLNAME = NOTITLE                                                                         ,
 SN_TRACER(77)%CLUNIT  = NOUNIT              ,
 SN_TRACER(77)%LLINIT  = F,
 SN_TRACER(77)%LLSBC   = F,
 SN_TRACER(77)%LLCBC   = F,
 SN_TRACER(77)%LLOBC   = F,
 SN_TRACER(77)%LLSAVE  = F,
 SN_TRACER(78)%CLSNAME = NONAME              ,
 SN_TRACER(78)%CLLNAME = NOTITLE                                                                         ,
 SN_TRACER(78)%CLUNIT  = NOUNIT              ,
 SN_TRACER(78)%LLINIT  = F,
 SN_TRACER(78)%LLSBC   = F,
 SN_TRACER(78)%LLCBC   = F,
 SN_TRACER(78)%LLOBC   = F,
 SN_TRACER(78)%LLSAVE  = F,
 SN_TRACER(79)%CLSNAME = NONAME              ,
 SN_TRACER(79)%CLLNAME = NOTITLE                                                                         ,
 SN_TRACER(79)%CLUNIT  = NOUNIT              ,
 SN_TRACER(79)%LLINIT  = F,
 SN_TRACER(79)%LLSBC   = F,
 SN_TRACER(79)%LLCBC   = F,
 SN_TRACER(79)%LLOBC   = F,
 SN_TRACER(79)%LLSAVE  = F,
 SN_TRACER(80)%CLSNAME = NONAME              ,
 SN_TRACER(80)%CLLNAME = NOTITLE                                                                         ,
 SN_TRACER(80)%CLUNIT  = NOUNIT              ,
 SN_TRACER(80)%LLINIT  = F,
 SN_TRACER(80)%LLSBC   = F,
 SN_TRACER(80)%LLCBC   = F,
 SN_TRACER(80)%LLOBC   = F,
 SN_TRACER(80)%LLSAVE  = F,
 SN_TRACER(81)%CLSNAME = NONAME              ,
 SN_TRACER(81)%CLLNAME = NOTITLE                                                                         ,
 SN_TRACER(81)%CLUNIT  = NOUNIT              ,
 SN_TRACER(81)%LLINIT  = F,
 SN_TRACER(81)%LLSBC   = F,
 SN_TRACER(81)%LLCBC   = F,
 SN_TRACER(81)%LLOBC   = F,
 SN_TRACER(81)%LLSAVE  = F,
 SN_TRACER(82)%CLSNAME = NONAME              ,
 SN_TRACER(82)%CLLNAME = NOTITLE                                                                         ,
 SN_TRACER(82)%CLUNIT  = NOUNIT              ,
 SN_TRACER(82)%LLINIT  = F,
 SN_TRACER(82)%LLSBC   = F,
 SN_TRACER(82)%LLCBC   = F,
 SN_TRACER(82)%LLOBC   = F,
 SN_TRACER(82)%LLSAVE  = F,
 SN_TRACER(83)%CLSNAME = NONAME              ,
 SN_TRACER(83)%CLLNAME = NOTITLE                                                                         ,
 SN_TRACER(83)%CLUNIT  = NOUNIT              ,
 SN_TRACER(83)%LLINIT  = F,
 SN_TRACER(83)%LLSBC   = F,
 SN_TRACER(83)%LLCBC   = F,
 SN_TRACER(83)%LLOBC   = F,
 SN_TRACER(83)%LLSAVE  = F,
 SN_TRACER(84)%CLSNAME = NONAME              ,
 SN_TRACER(84)%CLLNAME = NOTITLE                                                                         ,
 SN_TRACER(84)%CLUNIT  = NOUNIT              ,
 SN_TRACER(84)%LLINIT  = F,
 SN_TRACER(84)%LLSBC   = F,
 SN_TRACER(84)%LLCBC   = F,
 SN_TRACER(84)%LLOBC   = F,
 SN_TRACER(84)%LLSAVE  = F,
 SN_TRACER(85)%CLSNAME = NONAME              ,
 SN_TRACER(85)%CLLNAME = NOTITLE                                                                         ,
 SN_TRACER(85)%CLUNIT  = NOUNIT              ,
 SN_TRACER(85)%LLINIT  = F,
 SN_TRACER(85)%LLSBC   = F,
 SN_TRACER(85)%LLCBC   = F,
 SN_TRACER(85)%LLOBC   = F,
 SN_TRACER(85)%LLSAVE  = F,