 &NAMMPP
 CN_MPI_SEND     = I,
 NN_BUFFER       =           0,
 JPNI    =          11,
 JPNJ    =           8,
 JPNIJ   =          88,
 LN_NNOGATHER    = F
 /
 &NAMCTL
 LN_CTL  = F,
 NN_PRINT        =           0,
 NN_ICTLS        =           0,
 NN_ICTLE        =           0,
 NN_ISPLT        =           1,
 NN_JSPLT        =           1,
 NN_JCTLS        =           0,
 NN_JCTLE        =           0,
 NN_TIMING       =           1,
 NN_DIACFL       =           0
 /
 &NAMCFG
 LN_READ_CFG     = T,
 CN_DOMCFG       = domain_cfg_gebco.nc                                                                                               
                                                                                                                                     
           ,
 LN_WRITE_CFG    = F,
 CN_DOMCFG_OUT   = domain_cfg_out                                                                                                    
                                                                                                                                     
           ,
 LN_USE_JATTR    = F
 /
 &NAMEOS
 LN_TEOS10       = F,
 LN_EOS80        = T,
 LN_SEOS = F,
 RN_A0   =  0.165500000000000     ,
 RN_B0   =  0.765540000000000     ,
 RN_LAMBDA1      =  5.952000000000000E-002,
 RN_MU1  =  1.497000000000000E-004,
 RN_LAMBDA2      =  7.491400000000000E-004,
 RN_MU2  =  1.109000000000000E-005,
 RN_NU   =  2.434100000000000E-003
 /
 &NAMWAD
 LN_WD   = F,
 RN_WDMIN1       =  0.100000000000000     ,
 RN_WDMIN2       =  1.000000000000000E-002,
 RN_WDLD =   20.0000000000000     ,
 NN_WDIT =          10
 /
 &NAMRUN
 CN_OCERST_INDIR = ./RESTARTS                                                                                                        
                                                                                                                                     
           ,
 CN_OCERST_OUTDIR        = ./RESTARTS                                                                                                
                                                                                                                                     
                   ,
 NN_STOCKLIST    = 10*0,
 LN_RST_LIST     = F,
 NN_NO   =           0,
 CN_EXP  = SEAsia_ERSEM_CMEMS                                                                                                        
                                                                                                                                     
   ,
 CN_OCERST_IN    = SEAsia_ERSEM_CMEMS_xxx_restart                                                                                    
                                                                                                                                     
           ,
 CN_OCERST_OUT   = restart                                                                                                           
                                                                                                                                     
           ,
 LN_RSTART       = F,
 NN_RSTCTL       =           2,
 NN_IT000        =           1,
 NN_ITEND        =          20,
 NN_DATE0        =    20170101,
 NN_TIME0        =           0,
 NN_LEAPY        =           1,
 NN_ISTATE       =           0,
 NN_STOCK        =          20,
 NN_WRITE        =          20,
 LN_MSKLAND      = F,
 LN_CLOBBER      = T,
 NN_CHUNKSZ      =           0,
 NN_EULER        =           1,
 LN_CFMETA       = F,
 LN_ISCPL        = F
 /
 &NAMDOM
 LN_LINSSH       = F,
 NN_CLOSEA       =           0,
 NN_MSH  =           0,
 RN_ISFHMIN      =   1.00000000000000     ,
 RN_RDT  =   360.000000000000     ,
 RN_ATFP =  0.100000000000000     ,
 LN_CRS  = F
 /
 &NAMLBC
 RN_SHLAT        =  0.000000000000000E+000,
 LN_VORLAT       = F
 /
 &NAM_VVL
 LN_VVL_ZSTAR    = T,
 LN_VVL_ZTILDE   = F,
 LN_VVL_LAYER    = F,
 LN_VVL_ZTILDE_AS_ZSTAR  = F,
 LN_VVL_ZSTAR_AT_EQTOR   = F,
 RN_AHE3 =  0.000000000000000E+000,
 RN_RST_E3T      =   30.0000000000000     ,
 RN_LF_CUTOFF    =   5.00000000000000     ,
 RN_ZDEF_MAX     =  0.900000000000000     ,
 LN_VVL_DBG      = T
 /
 &NAMTSD
 LN_TSD_INIT     = T,
 LN_TSD_INTERP   = T,
 LN_TSD_TRADMP   = F,
 CN_DIR  = /work/n01/n01/annkat/SEAsia_ERSEM_CMEMS/INITIAL_CONDITIONS/                                         ,
 SN_TEM%CLNAME  = votemper_CMEMS-GLOBAL_ANALYSIS_FORECAST_PHY_001_024-SEAsia_2017.nc                                                 
                                                                                                                                     
          ,
 SN_TEM%NFREQH  =  -12.0000000000000     ,
 SN_TEM%CLVAR   = votemper                          ,
 SN_TEM%LN_TINT = F,
 SN_TEM%LN_CLIM = T,
 SN_TEM%CLTYPE  = yearly  ,
 SN_TEM%WNAME   =                                                                                                                    
                                                                                                                                     
          ,
 SN_TEM%VCOMP   =                                   ,
 SN_TEM%LNAME   =                                   ,
 SN_SAL%CLNAME  = vosaline_CMEMS-GLOBAL_ANALYSIS_FORECAST_PHY_001_024-SEAsia_2017.nc                                                 
                                                                                                                                     
          ,
 SN_SAL%NFREQH  =  -12.0000000000000     ,
 SN_SAL%CLVAR   = vosaline                          ,
 SN_SAL%LN_TINT = F,
 SN_SAL%LN_CLIM = T,
 SN_SAL%CLTYPE  = yearly  ,
 SN_SAL%WNAME   =                                                                                                                    
                                                                                                                                     
          ,
 SN_SAL%VCOMP   =                                   ,
 SN_SAL%LNAME   =                                   ,
 SN_DEP%CLNAME  = initcd_depth.nc                                                                                                    
                                                                                                                                     
          ,
 SN_DEP%NFREQH  =  -12.0000000000000     ,
 SN_DEP%CLVAR   = gdept_4D                          ,
 SN_DEP%LN_TINT = F,
 SN_DEP%LN_CLIM = T,
 SN_DEP%CLTYPE  = yearly  ,
 SN_DEP%WNAME   =                                                                                                                    
                                                                                                                                     
          ,
 SN_DEP%VCOMP   =                                   ,
 SN_DEP%LNAME   =                                   ,
 SN_MSK%CLNAME  = initcd_mask.nc                                                                                                     
                                                                                                                                     
          ,
 SN_MSK%NFREQH  =  -12.0000000000000     ,
 SN_MSK%CLVAR   = mask                              ,
 SN_MSK%LN_TINT = F,
 SN_MSK%LN_CLIM = T,
 SN_MSK%CLTYPE  = yearly  ,
 SN_MSK%WNAME   =                                                                                                                    
                                                                                                                                     
          ,
 SN_MSK%VCOMP   =                                   ,
 SN_MSK%LNAME   =                                   
 /
 &NAM_TIDE
 LN_TIDE = T,
 LN_TIDE_POT     = T,
 LN_TIDE_RAMP    = F,
 RDTTIDERAMP     =   5.00000000000000     ,
 DN_LOVE_NUMBER  =  0.690000000000000     ,
 CLNAME  = 2N2 EPS2J1  K1  K2  L2  LA2 M2  M3  M4  M6  M8  MF  MKS2MM  MN4 MS4 MSF MSQMMTM MU2 N2  N4  NU2 O1  P1  Q1  R2  S1  S2  S4
   SA  SSA T2  
 /
 &NAMSBC
 NN_FSBC =           1,
 LN_USR  = F,
 LN_FLX  = F,
 LN_BLK  = T,
 LN_CPL  = F,
 LN_MIXCPL       = F,
 NN_COMPONENTS   =           0,
 NN_LIMFLX       =          -1,
 NN_ICE  =           0,
 NN_ICE_EMBD     =           1,
 LN_TRAQSR       = F,
 LN_DM2DC        = F,
 LN_RNF  = T,
 NN_FWB  =           0,
 LN_SSR  = F,
 LN_ISF  = F,
 LN_APR_DYN      = F,
 LN_WAVE = F,
 LN_CDGW = F,
 LN_SDW  = F,
 LN_TAUOC        = F,
 LN_STCOR        = F,
 NN_LSM  =           0
 /
 &NAMSBC_BLK
 SN_WNDI%CLNAME  = ERA5_U10                                                                                                          
                                                                                                                                     
           ,
 SN_WNDI%NFREQH  =   1.00000000000000     ,
 SN_WNDI%CLVAR   = U10                               ,
 SN_WNDI%LN_TINT = F,
 SN_WNDI%LN_CLIM = F,
 SN_WNDI%CLTYPE  = yearly  ,
 SN_WNDI%WNAME   = weights_bicubic_atmos.nc                                                                                          
                                                                                                                                     
           ,
 SN_WNDI%VCOMP   = Uwnd                              ,
 SN_WNDI%LNAME   =                                   ,
 SN_WNDJ%CLNAME  = ERA5_V10                                                                                                          
                                                                                                                                     
           ,
 SN_WNDJ%NFREQH  =   1.00000000000000     ,
 SN_WNDJ%CLVAR   = V10                               ,
 SN_WNDJ%LN_TINT = F,
 SN_WNDJ%LN_CLIM = F,
 SN_WNDJ%CLTYPE  = yearly  ,
 SN_WNDJ%WNAME   = weights_bicubic_atmos.nc                                                                                          
                                                                                                                                     
           ,
 SN_WNDJ%VCOMP   = Vwnd                              ,
 SN_WNDJ%LNAME   =                                   ,
 SN_HUMI%CLNAME  = ERA5_SPH                                                                                                          
                                                                                                                                     
           ,
 SN_HUMI%NFREQH  =   1.00000000000000     ,
 SN_HUMI%CLVAR   = SPH                               ,
 SN_HUMI%LN_TINT = F,
 SN_HUMI%LN_CLIM = F,
 SN_HUMI%CLTYPE  = yearly  ,
 SN_HUMI%WNAME   = weights_bilinear_atmos.nc                                                                                         
                                                                                                                                     
           ,
 SN_HUMI%VCOMP   =                                   ,
 SN_HUMI%LNAME   =                                   ,
 SN_QSR%CLNAME  = ERA5_MSDWSWRF                                                                                                      
                                                                                                                                     
          ,
 SN_QSR%NFREQH  =   1.00000000000000     ,
 SN_QSR%CLVAR   = MSDWSWRF                          ,
 SN_QSR%LN_TINT = F,
 SN_QSR%LN_CLIM = F,
 SN_QSR%CLTYPE  = yearly  ,
 SN_QSR%WNAME   = weights_bilinear_atmos.nc                                                                                          
                                                                                                                                     
          ,
 SN_QSR%VCOMP   =                                   ,
 SN_QSR%LNAME   =                                   ,
 SN_QLW%CLNAME  = ERA5_MSDWLWRF                                                                                                      
                                                                                                                                     
          ,
 SN_QLW%NFREQH  =   1.00000000000000     ,
 SN_QLW%CLVAR   = MSDWLWRF                          ,
 SN_QLW%LN_TINT = F,
 SN_QLW%LN_CLIM = F,
 SN_QLW%CLTYPE  = yearly  ,
 SN_QLW%WNAME   = weights_bilinear_atmos.nc                                                                                          
                                                                                                                                     
          ,
 SN_QLW%VCOMP   =                                   ,
 SN_QLW%LNAME   =                                   ,
 SN_TAIR%CLNAME  = ERA5_T2M                                                                                                          
                                                                                                                                     
           ,
 SN_TAIR%NFREQH  =   1.00000000000000     ,
 SN_TAIR%CLVAR   = T2M                               ,
 SN_TAIR%LN_TINT = F,
 SN_TAIR%LN_CLIM = F,
 SN_TAIR%CLTYPE  = yearly  ,
 SN_TAIR%WNAME   = weights_bilinear_atmos.nc                                                                                         
                                                                                                                                     
           ,
 SN_TAIR%VCOMP   =                                   ,
 SN_TAIR%LNAME   =                                   ,
 SN_PREC%CLNAME  = ERA5_MTPR                                                                                                         
                                                                                                                                     
           ,
 SN_PREC%NFREQH  =   1.00000000000000     ,
 SN_PREC%CLVAR   = MTPR                              ,
 SN_PREC%LN_TINT = F,
 SN_PREC%LN_CLIM = F,
 SN_PREC%CLTYPE  = yearly  ,
 SN_PREC%WNAME   = weights_bilinear_atmos.nc                                                                                         
                                                                                                                                     
           ,
 SN_PREC%VCOMP   =                                   ,
 SN_PREC%LNAME   =                                   ,
 SN_SNOW%CLNAME  = ERA5_MSR                                                                                                          
                                                                                                                                     
           ,
 SN_SNOW%NFREQH  =   1.00000000000000     ,
 SN_SNOW%CLVAR   = MSR                               ,
 SN_SNOW%LN_TINT = F,
 SN_SNOW%LN_CLIM = F,
 SN_SNOW%CLTYPE  = yearly  ,
 SN_SNOW%WNAME   = weights_bilinear_atmos.nc                                                                                         
                                                                                                                                     
           ,
 SN_SNOW%VCOMP   =                                   ,
 SN_SNOW%LNAME   =                                   ,
 SN_SLP%CLNAME  = ERA5_MSL                                                                                                           
                                                                                                                                     
          ,
 SN_SLP%NFREQH  =   1.00000000000000     ,
 SN_SLP%CLVAR   = MSL                               ,
 SN_SLP%LN_TINT = F,
 SN_SLP%LN_CLIM = F,
 SN_SLP%CLTYPE  = yearly  ,
 SN_SLP%WNAME   = weights_bilinear_atmos.nc                                                                                          
                                                                                                                                     
          ,
 SN_SLP%VCOMP   =                                   ,
 SN_SLP%LNAME   =                                   ,
 SN_TDIF%CLNAME  = taudif_core                                                                                                       
                                                                                                                                     
           ,
 SN_TDIF%NFREQH  =   24.0000000000000     ,
 SN_TDIF%CLVAR   = taudif                            ,
 SN_TDIF%LN_TINT = F,
 SN_TDIF%LN_CLIM = T,
 SN_TDIF%CLTYPE  = yearly  ,
 SN_TDIF%WNAME   = weights_core_orca2_bilinear_noc.nc                                                                                
                                                                                                                                     
           ,
 SN_TDIF%VCOMP   =                                   ,
 SN_TDIF%LNAME   =                                   ,
 LN_NCAR = F,
 LN_COARE_3P0    = F,
 LN_COARE_3P5    = F,
 LN_ECMWF        = T,
 CN_DIR  = /work/n01/n01/annkat/SEAsia_ERSEM_CMEMS/SURFACE_FORCING/                                            ,
 LN_TAUDIF       = F,
 RN_ZQT  =   2.00000000000000     ,
 RN_ZU   =   10.0000000000000     ,
 RN_PFAC =   1.00000000000000     ,
 RN_EFAC =   1.00000000000000     ,
 RN_VFAC =  0.000000000000000E+000,
 LN_CD_L12       = F
 /
 &NAMSBC_RNF
 CN_DIR  = /work/n01/n01/annkat/SEAsia_ERSEM_CMEMS/RIVERS/                                                     ,
 LN_RNF_DEPTH    = F,
 LN_RNF_TEM      = F,
 LN_RNF_SAL      = F,
 SN_RNF%CLNAME  = SEAsia_rivertest_v3.nc                                                                                             
                                                                                                                                     
          ,
 SN_RNF%NFREQH  =  -1.00000000000000     ,
 SN_RNF%CLVAR   = rorunoff                          ,
 SN_RNF%LN_TINT = T,
 SN_RNF%LN_CLIM = T,
 SN_RNF%CLTYPE  = yearly  ,
 SN_RNF%WNAME   =                                                                                                                    
                                                                                                                                     
          ,
 SN_RNF%VCOMP   =                                   ,
 SN_RNF%LNAME   =                                   ,
 SN_CNF%CLNAME  = SEAsia_rivers                                                                                                      
                                                                                                                                     
          ,
 SN_CNF%NFREQH  =  0.000000000000000E+000,
 SN_CNF%CLVAR   = socoefr                           ,
 SN_CNF%LN_TINT = F,
 SN_CNF%LN_CLIM = T,
 SN_CNF%CLTYPE  = yearly  ,
 SN_CNF%WNAME   =                                                                                                                    
                                                                                                                                     
          ,
 SN_CNF%VCOMP   =                                   ,
 SN_CNF%LNAME   =                                   ,
 SN_S_RNF%CLNAME  = runoffs                                                                                                          
                                                                                                                                     
            ,
 SN_S_RNF%NFREQH  =   24.0000000000000     ,
 SN_S_RNF%CLVAR   = rosaline                          ,
 SN_S_RNF%LN_TINT = T,
 SN_S_RNF%LN_CLIM = T,
 SN_S_RNF%CLTYPE  = yearly  ,
 SN_S_RNF%WNAME   =                                                                                                                  
                                                                                                                                     
            ,
 SN_S_RNF%VCOMP   =                                   ,
 SN_S_RNF%LNAME   =                                   ,
 SN_T_RNF%CLNAME  = runoffs                                                                                                          
                                                                                                                                     
            ,
 SN_T_RNF%NFREQH  =   24.0000000000000     ,
 SN_T_RNF%CLVAR   = rotemper                          ,
 SN_T_RNF%LN_TINT = T,
 SN_T_RNF%LN_CLIM = T,
 SN_T_RNF%CLTYPE  = yearly  ,
 SN_T_RNF%WNAME   =                                                                                                                  
                                                                                                                                     
            ,
 SN_T_RNF%VCOMP   =                                   ,
 SN_T_RNF%LNAME   =                                   ,
 SN_DEP_RNF%CLNAME  = runoffs                                                                                                        
                                                                                                                                     
              ,
 SN_DEP_RNF%NFREQH  =  0.000000000000000E+000,
 SN_DEP_RNF%CLVAR   = rodepth                           ,
 SN_DEP_RNF%LN_TINT = F,
 SN_DEP_RNF%LN_CLIM = T,
 SN_DEP_RNF%CLTYPE  = yearly  ,
 SN_DEP_RNF%WNAME   =                                                                                                                
                                                                                                                                     
              ,
 SN_DEP_RNF%VCOMP   =                                   ,
 SN_DEP_RNF%LNAME   =                                   ,
 LN_RNF_MOUTH    = F,
 RN_HRNF =   15.0000000000000     ,
 RN_AVT_RNF      =  1.000000000000000E-003,
 RN_RFACT        =   1.00000000000000     ,
 LN_RNF_DEPTH_INI        = F,
 RN_DEP_MAX      =   50.0000000000000     ,
 RN_RNF_MAX      =   1.62240000000000     ,
 NN_RNF_DEPTH_FILE       =           0
 /
 &NAMBDY
 LN_BDY  = T,
 NB_BDY  =           1,
 LN_COORDS_FILE  = T, 9*F,
 CN_COORDS_FILE  = /work/n01/n01/annkat/SEAsia_ERSEM_CMEMS/BOUNDARY_FORCING/2017/coordinates.bdy.nc                                  
                                                                                                                                     
                                                                                                                                     
                                                                                                                                     
                                                                                                                                     
                                                                                                                                     
                           ,
 LN_MASK_FILE    = F,
 CN_MASK_FILE    = bdy_mask.nc                                                                     ,
 CN_DYN2D        = flather                                                                                                           
                                                                                       ,
 NN_DYN2D_DTA    =           3, 9*0,
 CN_DYN3D        = specified                                                                                                         
                                                                                       ,
 NN_DYN3D_DTA    =           1, 9*0,
 CN_TRA  = frs                                                                                                                       
                                                                               ,
 NN_TRA_DTA      =           1, 9*0,
 LN_TRA_DMP      = 10*F,
 LN_DYN3D_DMP    = 10*F,
 RN_TIME_DMP     =   1.00000000000000     , 9*0.000000000000000E+000  ,
 RN_TIME_DMP_OUT =   150.000000000000     , 9*0.000000000000000E+000  ,
 CN_ICE_LIM      = none                                                                                                              
                                                                                       ,
 NN_ICE_LIM_DTA  = 10*0,
 RN_ICE_TEM      =   270.000000000000     , 9*0.000000000000000E+000  ,
 RN_ICE_SAL      =   10.0000000000000     , 9*0.000000000000000E+000  ,
 RN_ICE_AGE      =   30.0000000000000     , 9*0.000000000000000E+000  ,
 LN_VOL  = F,
 NN_VOLCTL       =           1,
 NN_RIMWIDTH     =           9, 9*0,
 NB_JPK_BDY      =          50
 /
 &NAMBDY_DTA
 CN_DIR  = /work/n01/n01/annkat/SEAsia_ERSEM_CMEMS/BOUNDARY_FORCING/2017/                                      ,
 BN_TEM%CLNAME  = SEAsia_CMEMS_gebco_bdyT                                                                                            
                                                                                                                                     
          ,
 BN_TEM%NFREQH  =   24.0000000000000     ,
 BN_TEM%CLVAR   = votemper                          ,
 BN_TEM%LN_TINT = T,
 BN_TEM%LN_CLIM = F,
 BN_TEM%CLTYPE  = monthly ,
 BN_TEM%WNAME   =                                                                                                                    
                                                                                                                                     
          ,
 BN_TEM%VCOMP   =                                   ,
 BN_TEM%LNAME   =                                   ,
 BN_SAL%CLNAME  = SEAsia_CMEMS_gebco_bdyT                                                                                            
                                                                                                                                     
          ,
 BN_SAL%NFREQH  =   24.0000000000000     ,
 BN_SAL%CLVAR   = vosaline                          ,
 BN_SAL%LN_TINT = T,
 BN_SAL%LN_CLIM = F,
 BN_SAL%CLTYPE  = monthly ,
 BN_SAL%WNAME   =                                                                                                                    
                                                                                                                                     
          ,
 BN_SAL%VCOMP   =                                   ,
 BN_SAL%LNAME   =                                   ,
 BN_U3D%CLNAME  = SEAsia_CMEMS_gebco_bdyU                                                                                            
                                                                                                                                     
          ,
 BN_U3D%NFREQH  =   24.0000000000000     ,
 BN_U3D%CLVAR   = vozocrtx                          ,
 BN_U3D%LN_TINT = T,
 BN_U3D%LN_CLIM = F,
 BN_U3D%CLTYPE  = monthly ,
 BN_U3D%WNAME   =                                                                                                                    
                                                                                                                                     
          ,
 BN_U3D%VCOMP   =                                   ,
 BN_U3D%LNAME   =                                   ,
 BN_V3D%CLNAME  = SEAsia_CMEMS_gebco_bdyV                                                                                            
                                                                                                                                     
          ,
 BN_V3D%NFREQH  =   24.0000000000000     ,
 BN_V3D%CLVAR   = vomecrty                          ,
 BN_V3D%LN_TINT = T,
 BN_V3D%LN_CLIM = F,
 BN_V3D%CLTYPE  = monthly ,
 BN_V3D%WNAME   =                                                                                                                    
                                                                                                                                     
          ,
 BN_V3D%VCOMP   =                                   ,
 BN_V3D%LNAME   =                                   ,
 BN_SSH%CLNAME  = SEAsia_CMEMS_gebco_bt_bdyT                                                                                         
                                                                                                                                     
          ,
 BN_SSH%NFREQH  =   24.0000000000000     ,
 BN_SSH%CLVAR   = sossheig                          ,
 BN_SSH%LN_TINT = T,
 BN_SSH%LN_CLIM = F,
 BN_SSH%CLTYPE  = monthly ,
 BN_SSH%WNAME   =                                                                                                                    
                                                                                                                                     
          ,
 BN_SSH%VCOMP   =                                   ,
 BN_SSH%LNAME   =                                   ,
 BN_U2D%CLNAME  = SEAsia_CMEMS_gebco_bdyU                                                                                            
                                                                                                                                     
          ,
 BN_U2D%NFREQH  =   24.0000000000000     ,
 BN_U2D%CLVAR   = vobtcrtx                          ,
 BN_U2D%LN_TINT = T,
 BN_U2D%LN_CLIM = F,
 BN_U2D%CLTYPE  = monthly ,
 BN_U2D%WNAME   =                                                                                                                    
                                                                                                                                     
          ,
 BN_U2D%VCOMP   =                                   ,
 BN_U2D%LNAME   =                                   ,
 BN_V2D%CLNAME  = SEAsia_CMEMS_gebco_bdyV                                                                                            